*SPEF "ieee 1481-1999"
*DESIGN "neuron_core"
*DATE "14:24:04 Saturday November 08, 2025"
*VENDOR "The OpenROAD Project"
*PROGRAM "OpenROAD"
*VERSION "edf00dff99f6c40d67a30c0e22a8191c5d2ed9d6"
*DESIGN_FLOW "NAME_SCOPE LOCAL" "PIN_CAP NONE"
*DIVIDER /
*DELIMITER :
*BUS_DELIMITER []
*T_UNIT 1 NS
*C_UNIT 1 PF
*R_UNIT 1 OHM
*L_UNIT 1 HENRY

*NAME_MAP
*1 VDDA
*2 VDDC
*5 VSS
*6 slave_0_dat_i[0]
*7 slave_0_dat_i[10]
*8 slave_0_dat_i[11]
*9 slave_0_dat_i[12]
*10 slave_0_dat_i[13]
*11 slave_0_dat_i[14]
*12 slave_0_dat_i[15]
*13 slave_0_dat_i[16]
*14 slave_0_dat_i[17]
*15 slave_0_dat_i[18]
*16 slave_0_dat_i[19]
*17 slave_0_dat_i[1]
*18 slave_0_dat_i[20]
*19 slave_0_dat_i[21]
*20 slave_0_dat_i[22]
*21 slave_0_dat_i[23]
*22 slave_0_dat_i[24]
*23 slave_0_dat_i[25]
*24 slave_0_dat_i[26]
*25 slave_0_dat_i[27]
*26 slave_0_dat_i[28]
*27 slave_0_dat_i[29]
*28 slave_0_dat_i[2]
*29 slave_0_dat_i[30]
*30 slave_0_dat_i[31]
*31 slave_0_dat_i[3]
*32 slave_0_dat_i[4]
*33 slave_0_dat_i[5]
*34 slave_0_dat_i[6]
*35 slave_0_dat_i[7]
*36 slave_0_dat_i[8]
*37 slave_0_dat_i[9]
*38 slave_0_dat_o[0]
*39 slave_0_dat_o[10]
*40 slave_0_dat_o[11]
*41 slave_0_dat_o[12]
*42 slave_0_dat_o[13]
*43 slave_0_dat_o[14]
*44 slave_0_dat_o[15]
*45 slave_0_dat_o[16]
*46 slave_0_dat_o[17]
*47 slave_0_dat_o[18]
*48 slave_0_dat_o[19]
*49 slave_0_dat_o[1]
*50 slave_0_dat_o[20]
*51 slave_0_dat_o[21]
*52 slave_0_dat_o[22]
*53 slave_0_dat_o[23]
*54 slave_0_dat_o[24]
*55 slave_0_dat_o[25]
*56 slave_0_dat_o[26]
*57 slave_0_dat_o[27]
*58 slave_0_dat_o[28]
*59 slave_0_dat_o[29]
*60 slave_0_dat_o[2]
*61 slave_0_dat_o[30]
*62 slave_0_dat_o[31]
*63 slave_0_dat_o[3]
*64 slave_0_dat_o[4]
*65 slave_0_dat_o[5]
*66 slave_0_dat_o[6]
*67 slave_0_dat_o[7]
*68 slave_0_dat_o[8]
*69 slave_0_dat_o[9]
*70 slave_1_dat_i[0]
*71 slave_1_dat_i[10]
*72 slave_1_dat_i[11]
*73 slave_1_dat_i[12]
*74 slave_1_dat_i[13]
*75 slave_1_dat_i[14]
*76 slave_1_dat_i[15]
*77 slave_1_dat_i[16]
*78 slave_1_dat_i[17]
*79 slave_1_dat_i[18]
*80 slave_1_dat_i[19]
*81 slave_1_dat_i[1]
*82 slave_1_dat_i[20]
*83 slave_1_dat_i[21]
*84 slave_1_dat_i[22]
*85 slave_1_dat_i[23]
*86 slave_1_dat_i[24]
*87 slave_1_dat_i[25]
*88 slave_1_dat_i[26]
*89 slave_1_dat_i[27]
*90 slave_1_dat_i[28]
*91 slave_1_dat_i[29]
*92 slave_1_dat_i[2]
*93 slave_1_dat_i[30]
*94 slave_1_dat_i[31]
*95 slave_1_dat_i[3]
*96 slave_1_dat_i[4]
*97 slave_1_dat_i[5]
*98 slave_1_dat_i[6]
*99 slave_1_dat_i[7]
*100 slave_1_dat_i[8]
*101 slave_1_dat_i[9]
*102 slave_1_dat_o[0]
*103 slave_1_dat_o[10]
*104 slave_1_dat_o[11]
*105 slave_1_dat_o[12]
*106 slave_1_dat_o[13]
*107 slave_1_dat_o[14]
*108 slave_1_dat_o[15]
*109 slave_1_dat_o[16]
*110 slave_1_dat_o[17]
*111 slave_1_dat_o[18]
*112 slave_1_dat_o[19]
*113 slave_1_dat_o[1]
*114 slave_1_dat_o[20]
*115 slave_1_dat_o[21]
*116 slave_1_dat_o[22]
*117 slave_1_dat_o[23]
*118 slave_1_dat_o[24]
*119 slave_1_dat_o[25]
*120 slave_1_dat_o[26]
*121 slave_1_dat_o[27]
*122 slave_1_dat_o[28]
*123 slave_1_dat_o[29]
*124 slave_1_dat_o[2]
*125 slave_1_dat_o[30]
*126 slave_1_dat_o[31]
*127 slave_1_dat_o[3]
*128 slave_1_dat_o[4]
*129 slave_1_dat_o[5]
*130 slave_1_dat_o[6]
*131 slave_1_dat_o[7]
*132 slave_1_dat_o[8]
*133 slave_1_dat_o[9]
*134 slave_2_dat_i[0]
*135 slave_2_dat_i[10]
*136 slave_2_dat_i[11]
*137 slave_2_dat_i[12]
*138 slave_2_dat_i[13]
*139 slave_2_dat_i[14]
*140 slave_2_dat_i[15]
*141 slave_2_dat_i[16]
*142 slave_2_dat_i[17]
*143 slave_2_dat_i[18]
*144 slave_2_dat_i[19]
*145 slave_2_dat_i[1]
*146 slave_2_dat_i[20]
*147 slave_2_dat_i[21]
*148 slave_2_dat_i[22]
*149 slave_2_dat_i[23]
*150 slave_2_dat_i[24]
*151 slave_2_dat_i[25]
*152 slave_2_dat_i[26]
*153 slave_2_dat_i[27]
*154 slave_2_dat_i[28]
*155 slave_2_dat_i[29]
*156 slave_2_dat_i[2]
*157 slave_2_dat_i[30]
*158 slave_2_dat_i[31]
*159 slave_2_dat_i[3]
*160 slave_2_dat_i[4]
*161 slave_2_dat_i[5]
*162 slave_2_dat_i[6]
*163 slave_2_dat_i[7]
*164 slave_2_dat_i[8]
*165 slave_2_dat_i[9]
*166 slave_2_dat_o[0]
*167 slave_2_dat_o[10]
*168 slave_2_dat_o[11]
*169 slave_2_dat_o[12]
*170 slave_2_dat_o[13]
*171 slave_2_dat_o[14]
*172 slave_2_dat_o[15]
*173 slave_2_dat_o[16]
*174 slave_2_dat_o[17]
*175 slave_2_dat_o[18]
*176 slave_2_dat_o[19]
*177 slave_2_dat_o[1]
*178 slave_2_dat_o[20]
*179 slave_2_dat_o[21]
*180 slave_2_dat_o[22]
*181 slave_2_dat_o[23]
*182 slave_2_dat_o[24]
*183 slave_2_dat_o[25]
*184 slave_2_dat_o[26]
*185 slave_2_dat_o[27]
*186 slave_2_dat_o[28]
*187 slave_2_dat_o[29]
*188 slave_2_dat_o[2]
*189 slave_2_dat_o[30]
*190 slave_2_dat_o[31]
*191 slave_2_dat_o[3]
*192 slave_2_dat_o[4]
*193 slave_2_dat_o[5]
*194 slave_2_dat_o[6]
*195 slave_2_dat_o[7]
*196 slave_2_dat_o[8]
*197 slave_2_dat_o[9]
*198 slave_3_dat_i[0]
*199 slave_3_dat_i[10]
*200 slave_3_dat_i[11]
*201 slave_3_dat_i[12]
*202 slave_3_dat_i[13]
*203 slave_3_dat_i[14]
*204 slave_3_dat_i[15]
*205 slave_3_dat_i[16]
*206 slave_3_dat_i[17]
*207 slave_3_dat_i[18]
*208 slave_3_dat_i[19]
*209 slave_3_dat_i[1]
*210 slave_3_dat_i[20]
*211 slave_3_dat_i[21]
*212 slave_3_dat_i[22]
*213 slave_3_dat_i[23]
*214 slave_3_dat_i[24]
*215 slave_3_dat_i[25]
*216 slave_3_dat_i[26]
*217 slave_3_dat_i[27]
*218 slave_3_dat_i[28]
*219 slave_3_dat_i[29]
*220 slave_3_dat_i[2]
*221 slave_3_dat_i[30]
*222 slave_3_dat_i[31]
*223 slave_3_dat_i[3]
*224 slave_3_dat_i[4]
*225 slave_3_dat_i[5]
*226 slave_3_dat_i[6]
*227 slave_3_dat_i[7]
*228 slave_3_dat_i[8]
*229 slave_3_dat_i[9]
*230 slave_3_dat_o[0]
*231 slave_3_dat_o[10]
*232 slave_3_dat_o[11]
*233 slave_3_dat_o[12]
*234 slave_3_dat_o[13]
*235 slave_3_dat_o[14]
*236 slave_3_dat_o[15]
*237 slave_3_dat_o[16]
*238 slave_3_dat_o[17]
*239 slave_3_dat_o[18]
*240 slave_3_dat_o[19]
*241 slave_3_dat_o[1]
*242 slave_3_dat_o[20]
*243 slave_3_dat_o[21]
*244 slave_3_dat_o[22]
*245 slave_3_dat_o[23]
*246 slave_3_dat_o[24]
*247 slave_3_dat_o[25]
*248 slave_3_dat_o[26]
*249 slave_3_dat_o[27]
*250 slave_3_dat_o[28]
*251 slave_3_dat_o[29]
*252 slave_3_dat_o[2]
*253 slave_3_dat_o[30]
*254 slave_3_dat_o[31]
*255 slave_3_dat_o[3]
*256 slave_3_dat_o[4]
*257 slave_3_dat_o[5]
*258 slave_3_dat_o[6]
*259 slave_3_dat_o[7]
*260 slave_3_dat_o[8]
*261 slave_3_dat_o[9]
*262 slave_ack_i[0]
*263 slave_ack_i[1]
*264 slave_ack_i[2]
*265 slave_ack_i[3]
*266 slave_cyc_o
*267 slave_stb_o
*268 slave_we_o
*269 wb_clk_i
*270 wb_rst_i
*271 wbs_ack_o
*272 wbs_adr_i[0]
*273 wbs_adr_i[10]
*274 wbs_adr_i[11]
*275 wbs_adr_i[12]
*276 wbs_adr_i[13]
*277 wbs_adr_i[14]
*278 wbs_adr_i[15]
*279 wbs_adr_i[16]
*280 wbs_adr_i[17]
*281 wbs_adr_i[18]
*282 wbs_adr_i[19]
*283 wbs_adr_i[1]
*284 wbs_adr_i[20]
*285 wbs_adr_i[21]
*286 wbs_adr_i[22]
*287 wbs_adr_i[23]
*288 wbs_adr_i[24]
*289 wbs_adr_i[25]
*290 wbs_adr_i[26]
*291 wbs_adr_i[27]
*292 wbs_adr_i[28]
*293 wbs_adr_i[29]
*294 wbs_adr_i[2]
*295 wbs_adr_i[30]
*296 wbs_adr_i[31]
*297 wbs_adr_i[3]
*298 wbs_adr_i[4]
*299 wbs_adr_i[5]
*300 wbs_adr_i[6]
*301 wbs_adr_i[7]
*302 wbs_adr_i[8]
*303 wbs_adr_i[9]
*304 wbs_cyc_i
*305 wbs_dat_i[0]
*306 wbs_dat_i[10]
*307 wbs_dat_i[11]
*308 wbs_dat_i[12]
*309 wbs_dat_i[13]
*310 wbs_dat_i[14]
*311 wbs_dat_i[15]
*312 wbs_dat_i[16]
*313 wbs_dat_i[17]
*314 wbs_dat_i[18]
*315 wbs_dat_i[19]
*316 wbs_dat_i[1]
*317 wbs_dat_i[20]
*318 wbs_dat_i[21]
*319 wbs_dat_i[22]
*320 wbs_dat_i[23]
*321 wbs_dat_i[24]
*322 wbs_dat_i[25]
*323 wbs_dat_i[26]
*324 wbs_dat_i[27]
*325 wbs_dat_i[28]
*326 wbs_dat_i[29]
*327 wbs_dat_i[2]
*328 wbs_dat_i[30]
*329 wbs_dat_i[31]
*330 wbs_dat_i[3]
*331 wbs_dat_i[4]
*332 wbs_dat_i[5]
*333 wbs_dat_i[6]
*334 wbs_dat_i[7]
*335 wbs_dat_i[8]
*336 wbs_dat_i[9]
*337 wbs_dat_o[0]
*338 wbs_dat_o[10]
*339 wbs_dat_o[11]
*340 wbs_dat_o[12]
*341 wbs_dat_o[13]
*342 wbs_dat_o[14]
*343 wbs_dat_o[15]
*344 wbs_dat_o[16]
*345 wbs_dat_o[17]
*346 wbs_dat_o[18]
*347 wbs_dat_o[19]
*348 wbs_dat_o[1]
*349 wbs_dat_o[20]
*350 wbs_dat_o[21]
*351 wbs_dat_o[22]
*352 wbs_dat_o[23]
*353 wbs_dat_o[24]
*354 wbs_dat_o[25]
*355 wbs_dat_o[26]
*356 wbs_dat_o[27]
*357 wbs_dat_o[28]
*358 wbs_dat_o[29]
*359 wbs_dat_o[2]
*360 wbs_dat_o[30]
*361 wbs_dat_o[31]
*362 wbs_dat_o[3]
*363 wbs_dat_o[4]
*364 wbs_dat_o[5]
*365 wbs_dat_o[6]
*366 wbs_dat_o[7]
*367 wbs_dat_o[8]
*368 wbs_dat_o[9]
*369 wbs_sel_i[0]
*370 wbs_sel_i[1]
*371 wbs_sel_i[2]
*372 wbs_sel_i[3]
*373 wbs_stb_i
*374 wbs_we_i
*375 _0000_
*376 _0001_
*377 _0002_
*378 _0003_
*379 _0004_
*380 _0005_
*381 _0006_
*382 _0007_
*383 _0008_
*384 _0009_
*385 _0010_
*386 _0011_
*387 _0012_
*388 _0013_
*389 _0014_
*390 _0015_
*391 _0016_
*392 _0017_
*393 _0018_
*394 _0019_
*395 _0020_
*396 _0021_
*397 _0022_
*398 _0023_
*399 _0024_
*400 _0025_
*401 _0026_
*402 _0027_
*403 _0028_
*404 _0029_
*405 _0030_
*406 _0031_
*407 _0032_
*408 _0033_
*409 _0034_
*410 _0035_
*411 _0036_
*412 _0037_
*413 _0038_
*414 _0039_
*415 _0040_
*416 _0041_
*417 _0042_
*418 _0043_
*419 _0044_
*420 _0045_
*421 _0046_
*422 _0047_
*423 _0048_
*424 _0049_
*425 _0050_
*426 _0051_
*427 _0052_
*428 _0053_
*429 _0054_
*430 _0055_
*431 _0056_
*432 _0057_
*433 _0058_
*434 _0059_
*435 _0060_
*436 _0061_
*437 _0062_
*438 _0063_
*439 _0064_
*440 _0065_
*441 _0066_
*442 _0067_
*443 _0068_
*444 _0069_
*445 _0070_
*446 _0071_
*447 _0072_
*448 _0073_
*449 _0074_
*450 _0075_
*451 _0076_
*452 _0077_
*453 _0078_
*454 _0079_
*455 _0080_
*456 _0081_
*457 _0082_
*458 _0083_
*459 _0084_
*460 _0085_
*461 _0086_
*462 _0087_
*463 _0088_
*464 _0089_
*465 _0090_
*466 _0091_
*467 _0092_
*468 _0093_
*469 _0094_
*470 _0095_
*471 _0096_
*472 _0097_
*473 _0098_
*474 _0099_
*475 _0100_
*476 _0101_
*477 _0102_
*478 _0103_
*479 _0104_
*480 _0105_
*481 _0106_
*482 _0107_
*483 _0108_
*484 _0109_
*485 _0110_
*486 _0111_
*487 _0112_
*488 _0113_
*489 _0114_
*490 _0115_
*491 _0116_
*492 _0117_
*493 _0118_
*494 _0119_
*495 _0120_
*496 _0121_
*497 _0122_
*498 _0123_
*499 _0124_
*500 _0125_
*501 _0126_
*502 _0127_
*503 _0128_
*504 _0129_
*505 _0130_
*506 _0131_
*507 _0132_
*508 _0133_
*509 _0134_
*510 _0135_
*511 _0136_
*512 _0137_
*513 _0138_
*514 _0139_
*515 _0140_
*516 _0141_
*517 _0142_
*518 _0143_
*519 _0144_
*520 _0145_
*521 _0146_
*522 _0147_
*523 _0148_
*524 _0149_
*525 _0150_
*526 _0151_
*527 _0152_
*528 _0153_
*529 _0154_
*530 _0155_
*531 _0156_
*532 _0157_
*533 _0158_
*534 _0159_
*535 _0160_
*536 _0161_
*537 _0162_
*538 _0163_
*539 _0164_
*540 _0165_
*541 _0166_
*542 _0167_
*543 _0168_
*544 _0169_
*545 _0170_
*546 _0171_
*547 _0172_
*548 _0173_
*549 _0174_
*550 _0175_
*551 _0176_
*552 _0177_
*553 _0178_
*554 _0179_
*555 _0180_
*556 _0181_
*557 _0182_
*558 _0183_
*559 _0184_
*560 _0185_
*561 _0186_
*562 _0187_
*563 _0188_
*564 _0189_
*565 _0190_
*566 _0191_
*567 _0192_
*568 _0193_
*569 _0194_
*570 _0195_
*571 _0196_
*572 _0197_
*573 _0198_
*574 _0199_
*575 _0200_
*576 _0201_
*577 _0202_
*578 _0203_
*579 _0204_
*580 _0205_
*581 _0206_
*582 _0207_
*583 _0208_
*584 _0209_
*585 _0210_
*586 _0211_
*587 _0212_
*588 _0213_
*589 _0214_
*590 _0215_
*591 _0216_
*592 _0217_
*593 _0218_
*594 _0219_
*595 _0220_
*596 _0221_
*597 _0222_
*598 _0223_
*599 _0224_
*600 _0225_
*601 _0226_
*602 _0227_
*603 _0228_
*604 _0229_
*605 _0230_
*606 _0231_
*607 _0232_
*608 _0233_
*609 _0234_
*610 _0235_
*611 _0236_
*612 _0237_
*613 _0238_
*614 _0239_
*615 _0240_
*616 _0241_
*617 _0242_
*618 _0243_
*619 _0244_
*620 _0245_
*621 _0246_
*622 _0247_
*623 _0248_
*624 _0249_
*625 _0250_
*626 _0251_
*627 _0252_
*628 _0253_
*629 _0254_
*630 _0255_
*631 _0256_
*632 _0257_
*633 _0258_
*634 _0259_
*635 _0260_
*636 _0261_
*637 _0262_
*638 _0263_
*639 _0264_
*640 _0265_
*641 _0266_
*642 _0267_
*643 _0268_
*644 _0269_
*645 _0270_
*646 _0271_
*647 _0272_
*648 _0273_
*649 _0274_
*650 _0275_
*651 _0276_
*652 _0277_
*653 _0278_
*654 _0279_
*655 _0280_
*656 _0281_
*657 _0282_
*658 _0283_
*659 _0284_
*660 _0285_
*661 _0286_
*662 _0287_
*663 _0288_
*664 _0289_
*665 _0290_
*666 _0291_
*667 _0292_
*668 _0293_
*669 _0294_
*670 _0295_
*671 _0296_
*672 _0297_
*673 _0298_
*674 _0299_
*675 _0300_
*676 _0301_
*677 _0302_
*678 _0303_
*679 _0304_
*680 _0305_
*681 _0306_
*682 _0307_
*683 _0308_
*684 _0309_
*685 _0310_
*686 _0311_
*687 _0312_
*688 _0313_
*689 _0314_
*690 _0315_
*691 _0316_
*692 _0317_
*693 _0318_
*694 _0319_
*695 _0320_
*696 _0321_
*697 _0322_
*698 _0323_
*699 _0324_
*700 _0325_
*701 _0326_
*702 _0327_
*703 _0328_
*704 _0329_
*705 _0330_
*706 _0331_
*707 _0332_
*708 _0333_
*709 _0334_
*710 _0335_
*711 _0336_
*712 _0337_
*713 _0338_
*714 _0339_
*715 _0340_
*716 _0341_
*717 _0342_
*718 _0343_
*719 _0344_
*720 _0345_
*721 _0346_
*722 _0347_
*723 _0348_
*724 _0349_
*725 _0350_
*726 _0351_
*727 _0352_
*728 _0353_
*729 _0354_
*730 _0355_
*731 _0356_
*732 _0357_
*733 _0358_
*734 _0359_
*735 _0360_
*736 _0361_
*737 _0362_
*738 _0363_
*739 _0364_
*740 _0365_
*741 _0366_
*742 _0367_
*743 _0368_
*744 _0369_
*745 _0370_
*746 _0371_
*747 _0372_
*748 _0373_
*749 _0374_
*750 _0375_
*751 _0376_
*752 _0377_
*753 _0378_
*754 _0379_
*755 _0380_
*756 _0381_
*757 _0382_
*758 _0383_
*759 _0384_
*760 _0385_
*761 _0386_
*762 _0387_
*763 _0388_
*764 _0389_
*765 _0390_
*766 _0391_
*767 _0392_
*768 _0393_
*769 _0394_
*770 _0395_
*771 _0396_
*772 _0397_
*773 _0398_
*774 _0399_
*775 _0400_
*776 _0401_
*777 _0402_
*778 _0403_
*779 _0404_
*780 _0405_
*781 _0406_
*782 _0407_
*783 _0408_
*784 _0409_
*785 _0410_
*786 _0411_
*787 _0412_
*788 _0413_
*789 _0414_
*790 _0415_
*791 _0416_
*792 _0417_
*793 _0418_
*794 _0419_
*795 _0420_
*796 _0421_
*797 _0422_
*798 _0423_
*799 _0424_
*800 _0425_
*801 _0426_
*802 _0427_
*803 _0428_
*804 _0429_
*805 _0430_
*806 _0431_
*807 _0432_
*808 _0433_
*809 _0434_
*810 _0435_
*811 _0436_
*812 _0437_
*813 _0438_
*814 _0439_
*815 _0440_
*816 _0441_
*817 _0442_
*818 _0443_
*819 _0444_
*820 _0445_
*821 _0446_
*822 _0447_
*823 _0448_
*824 _0449_
*825 _0450_
*826 _0451_
*827 _0452_
*828 _0453_
*829 _0454_
*830 _0455_
*831 _0456_
*832 _0457_
*833 _0458_
*834 _0459_
*835 _0460_
*836 _0461_
*837 _0462_
*838 _0463_
*839 _0464_
*840 _0465_
*841 _0466_
*842 _0467_
*843 _0468_
*844 _0469_
*845 _0470_
*846 _0471_
*847 _0472_
*848 _0473_
*849 _0474_
*850 _0475_
*851 _0476_
*852 _0477_
*853 _0478_
*854 _0479_
*855 _0480_
*856 _0481_
*857 _0482_
*858 _0483_
*859 _0484_
*860 _0485_
*861 _0486_
*862 _0487_
*863 _0488_
*864 _0489_
*865 _0490_
*866 _0491_
*867 _0492_
*868 _0493_
*869 _0494_
*870 _0495_
*871 _0496_
*872 _0497_
*873 _0498_
*874 _0499_
*875 _0500_
*876 _0501_
*877 _0502_
*878 _0503_
*879 _0504_
*880 _0505_
*881 _0506_
*882 _0507_
*883 _0508_
*884 _0509_
*885 _0510_
*886 _0511_
*887 _0512_
*888 _0513_
*889 _0514_
*890 _0515_
*891 _0516_
*892 _0517_
*893 _0518_
*894 _0519_
*895 _0520_
*896 _0521_
*897 _0522_
*898 _0523_
*899 _0524_
*900 _0525_
*901 _0526_
*902 _0527_
*903 _0528_
*904 _0529_
*905 _0530_
*906 _0531_
*907 _0532_
*908 _0533_
*909 _0534_
*910 _0535_
*911 _0536_
*912 _0537_
*913 _0538_
*914 _0539_
*915 _0540_
*916 _0541_
*917 _0542_
*918 _0543_
*919 _0544_
*920 _0545_
*921 _0546_
*922 _0547_
*923 _0548_
*924 _0549_
*925 _0550_
*926 _0551_
*927 _0552_
*928 _0553_
*929 _0554_
*930 _0555_
*931 _0556_
*932 _0557_
*933 _0558_
*934 _0559_
*935 _0560_
*936 _0561_
*937 _0562_
*938 _0563_
*939 _0564_
*940 _0565_
*941 _0566_
*942 _0567_
*943 _0568_
*944 _0569_
*945 _0570_
*946 _0571_
*947 _0572_
*948 _0573_
*949 _0574_
*950 _0575_
*951 _0576_
*952 _0577_
*953 _0578_
*954 _0579_
*955 _0580_
*956 _0581_
*957 _0582_
*958 _0583_
*959 _0584_
*960 _0585_
*961 _0586_
*962 _0587_
*963 _0588_
*964 _0589_
*965 _0590_
*966 _0591_
*967 _0592_
*968 _0593_
*969 _0594_
*970 _0595_
*971 _0596_
*972 _0597_
*973 _0598_
*974 _0599_
*975 _0600_
*976 _0601_
*977 _0602_
*978 _0603_
*979 _0604_
*980 _0605_
*981 _0606_
*982 _0607_
*983 _0608_
*984 _0609_
*985 _0610_
*986 _0611_
*987 _0612_
*988 _0613_
*989 _0614_
*990 _0615_
*991 _0616_
*992 _0617_
*993 _0618_
*994 _0619_
*995 _0620_
*996 _0621_
*997 _0622_
*998 _0623_
*999 _0624_
*1000 _0625_
*1001 _0626_
*1002 _0627_
*1003 _0628_
*1004 _0629_
*1005 _0630_
*1006 _0631_
*1007 _0632_
*1008 _0633_
*1009 _0634_
*1010 _0635_
*1011 _0636_
*1012 _0637_
*1013 _0638_
*1014 _0639_
*1015 _0640_
*1016 _0641_
*1017 _0642_
*1018 _0643_
*1019 _0644_
*1020 _0645_
*1021 _0646_
*1022 _0647_
*1023 _0648_
*1024 _0649_
*1025 _0650_
*1026 _0651_
*1027 _0652_
*1028 _0653_
*1029 _0654_
*1030 _0655_
*1031 _0656_
*1032 _0657_
*1033 _0658_
*1034 _0659_
*1035 _0660_
*1036 _0661_
*1037 _0662_
*1038 _0663_
*1039 _0664_
*1040 _0665_
*1041 _0666_
*1042 _0667_
*1043 _0668_
*1044 _0669_
*1045 _0670_
*1046 _0671_
*1047 _0672_
*1048 _0673_
*1049 _0674_
*1050 _0675_
*1051 _0676_
*1052 _0677_
*1053 _0678_
*1054 _0679_
*1055 _0680_
*1056 _0681_
*1057 _0682_
*1058 _0683_
*1059 _0684_
*1060 _0685_
*1061 _0686_
*1062 _0687_
*1063 _0688_
*1064 _0689_
*1065 _0690_
*1066 _0691_
*1067 _0692_
*1068 _0693_
*1069 _0694_
*1070 _0695_
*1071 _0696_
*1072 _0697_
*1073 _0698_
*1074 _0699_
*1075 _0700_
*1076 _0701_
*1077 _0702_
*1078 _0703_
*1079 _0704_
*1080 _0705_
*1081 _0706_
*1082 _0707_
*1083 _0708_
*1084 _0709_
*1085 _0710_
*1086 _0711_
*1087 _0712_
*1088 _0713_
*1089 _0714_
*1090 _0715_
*1091 _0716_
*1092 _0717_
*1093 _0718_
*1094 _0719_
*1095 _0720_
*1096 _0721_
*1097 _0722_
*1098 _0723_
*1099 _0724_
*1100 _0725_
*1101 _0726_
*1102 _0727_
*1103 _0728_
*1104 _0729_
*1105 _0730_
*1106 _0731_
*1107 _0732_
*1108 _0733_
*1109 _0734_
*1110 _0735_
*1111 _0736_
*1112 _0737_
*1113 _0738_
*1114 _0739_
*1115 _0740_
*1116 _0741_
*1117 _0742_
*1118 _0743_
*1119 _0744_
*1120 _0745_
*1121 _0746_
*1122 _0747_
*1123 _0748_
*1124 _0749_
*1125 _0750_
*1126 _0751_
*1127 _0752_
*1128 _0753_
*1129 _0754_
*1130 _0755_
*1131 _0756_
*1132 _0757_
*1133 _0758_
*1134 _0759_
*1135 _0760_
*1136 _0761_
*1137 _0762_
*1138 _0763_
*1139 _0764_
*1140 _0765_
*1141 _0766_
*1142 _0767_
*1143 _0768_
*1144 _0769_
*1145 _0770_
*1146 _0771_
*1147 _0772_
*1148 _0773_
*1149 _0774_
*1150 _0775_
*1151 _0776_
*1152 _0777_
*1153 _0778_
*1154 _0779_
*1155 _0780_
*1156 _0781_
*1157 _0782_
*1158 _0783_
*1159 _0784_
*1160 _0785_
*1161 _0786_
*1162 _0787_
*1163 _0788_
*1164 _0789_
*1165 _0790_
*1166 _0791_
*1167 _0792_
*1168 _0793_
*1169 _0794_
*1170 _0795_
*1171 _0796_
*1172 _0797_
*1173 _0798_
*1174 _0799_
*1175 _0800_
*1176 _0801_
*1177 _0802_
*1178 _0803_
*1179 _0804_
*1180 _0805_
*1181 _0806_
*1182 _0807_
*1183 _0808_
*1184 _0809_
*1185 _0810_
*1186 _0811_
*1187 _0812_
*1188 _0813_
*1189 _0814_
*1190 _0815_
*1191 _0816_
*1192 _0817_
*1193 _0818_
*1194 _0819_
*1195 _0820_
*1196 _0821_
*1197 _0822_
*1198 _0823_
*1199 _0824_
*1200 _0825_
*1201 _0826_
*1202 _0827_
*1203 _0828_
*1204 _0829_
*1205 _0830_
*1206 _0831_
*1207 _0832_
*1208 _0833_
*1209 _0834_
*1210 _0835_
*1211 _0836_
*1212 _0837_
*1213 _0838_
*1214 _0839_
*1215 _0840_
*1216 _0841_
*1217 _0842_
*1218 _0843_
*1219 _0844_
*1220 _0845_
*1221 _0846_
*1222 _0847_
*1223 _0848_
*1224 _0849_
*1225 _0850_
*1226 _0851_
*1227 _0852_
*1228 _0853_
*1229 _0854_
*1230 _0855_
*1231 _0856_
*1232 _0857_
*1233 _0858_
*1234 _0859_
*1235 _0860_
*1236 _0861_
*1237 _0862_
*1238 _0863_
*1239 _0864_
*1240 _0865_
*1241 _0866_
*1242 _0867_
*1243 _0868_
*1244 _0869_
*1245 _0870_
*1246 _0871_
*1247 _0872_
*1248 _0873_
*1249 _0874_
*1250 _0875_
*1251 _0876_
*1252 _0877_
*1253 _0878_
*1254 _0879_
*1255 _0880_
*1256 _0881_
*1257 _0882_
*1258 _0883_
*1259 _0884_
*1260 _0885_
*1261 _0886_
*1262 _0887_
*1263 _0888_
*1264 _0889_
*1265 _0890_
*1266 _0891_
*1267 _0892_
*1268 _0893_
*1269 _0894_
*1270 _0895_
*1271 _0896_
*1272 _0897_
*1273 _0898_
*1274 _0899_
*1275 _0900_
*1276 _0901_
*1277 _0902_
*1278 _0903_
*1279 _0904_
*1280 _0905_
*1281 _0906_
*1282 _0907_
*1283 _0908_
*1284 _0909_
*1285 _0910_
*1286 _0911_
*1287 _0912_
*1288 _0913_
*1289 _0914_
*1290 _0915_
*1291 _0916_
*1292 _0917_
*1293 _0918_
*1294 _0919_
*1295 _0920_
*1296 _0921_
*1297 _0922_
*1298 _0923_
*1299 _0924_
*1300 _0925_
*1301 _0926_
*1302 _0927_
*1303 _0928_
*1304 _0929_
*1305 _0930_
*1306 _0931_
*1307 _0932_
*1308 _0933_
*1309 _0934_
*1310 _0935_
*1311 _0936_
*1312 _0937_
*1313 _0938_
*1314 _0939_
*1315 _0940_
*1316 _0941_
*1317 _0942_
*1318 _0943_
*1319 _0944_
*1320 _0945_
*1321 _0946_
*1322 _0947_
*1323 _0948_
*1324 _0949_
*1325 _0950_
*1326 _0951_
*1327 _0952_
*1328 _0953_
*1329 _0954_
*1330 _0955_
*1331 _0956_
*1332 _0957_
*1333 _0958_
*1334 _0959_
*1335 _0960_
*1336 _0961_
*1337 _0962_
*1338 _0963_
*1339 _0964_
*1340 _0965_
*1341 _0966_
*1342 _0967_
*1343 _0968_
*1344 _0969_
*1345 _0970_
*1346 _0971_
*1347 _0972_
*1348 _0973_
*1349 _0974_
*1350 _0975_
*1351 _0976_
*1352 _0977_
*1353 _0978_
*1354 _0979_
*1355 _0980_
*1356 _0981_
*1357 _0982_
*1358 _0983_
*1359 _0984_
*1360 _0985_
*1361 _0986_
*1362 _0987_
*1363 _0988_
*1364 _0989_
*1365 _0990_
*1366 _0991_
*1367 _0992_
*1368 _0993_
*1369 _0994_
*1370 _0995_
*1371 _0996_
*1372 _0997_
*1373 _0998_
*1374 _0999_
*1375 _1000_
*1376 _1001_
*1377 _1002_
*1378 _1003_
*1379 _1004_
*1380 _1005_
*1381 _1006_
*1382 _1007_
*1383 _1008_
*1384 _1009_
*1385 _1010_
*1386 _1011_
*1387 _1012_
*1388 _1013_
*1389 _1014_
*1390 _1015_
*1391 _1016_
*1392 _1017_
*1393 _1018_
*1394 _1019_
*1395 _1020_
*1396 _1021_
*1397 _1022_
*1398 _1023_
*1399 _1024_
*1400 _1025_
*1401 _1026_
*1402 _1027_
*1403 _1028_
*1404 _1029_
*1405 _1030_
*1406 _1031_
*1407 _1032_
*1408 _1033_
*1409 _1034_
*1410 _1035_
*1411 _1036_
*1412 _1037_
*1413 _1038_
*1414 _1039_
*1415 _1040_
*1416 _1041_
*1417 _1042_
*1418 _1043_
*1419 _1044_
*1420 _1045_
*1421 _1046_
*1422 _1047_
*1423 _1048_
*1424 _1049_
*1425 _1050_
*1426 _1051_
*1427 _1052_
*1428 _1053_
*1429 _1054_
*1430 _1055_
*1431 _1056_
*1432 _1057_
*1433 _1058_
*1434 _1059_
*1435 _1060_
*1436 _1061_
*1437 _1062_
*1438 _1063_
*1439 _1064_
*1440 _1065_
*1441 _1066_
*1442 _1067_
*1443 _1068_
*1444 _1069_
*1445 _1070_
*1446 _1071_
*1447 _1072_
*1448 _1073_
*1449 _1074_
*1450 _1075_
*1451 _1076_
*1452 _1077_
*1453 _1078_
*1454 _1079_
*1455 _1080_
*1456 _1081_
*1457 _1082_
*1458 _1083_
*1459 _1084_
*1460 _1085_
*1461 _1086_
*1462 _1087_
*1463 _1088_
*1464 _1089_
*1465 _1090_
*1466 _1091_
*1467 _1092_
*1468 _1093_
*1469 _1094_
*1470 _1095_
*1471 _1096_
*1472 _1097_
*1473 _1098_
*1474 _1099_
*1475 _1100_
*1476 _1101_
*1477 _1102_
*1478 _1103_
*1479 _1104_
*1480 _1105_
*1481 _1106_
*1482 _1107_
*1483 _1108_
*1484 _1109_
*1485 _1110_
*1486 clknet_0_wb_clk_i
*1487 clknet_4_0_0_wb_clk_i
*1488 clknet_4_10_0_wb_clk_i
*1489 clknet_4_11_0_wb_clk_i
*1490 clknet_4_12_0_wb_clk_i
*1491 clknet_4_13_0_wb_clk_i
*1492 clknet_4_14_0_wb_clk_i
*1493 clknet_4_15_0_wb_clk_i
*1494 clknet_4_1_0_wb_clk_i
*1495 clknet_4_2_0_wb_clk_i
*1496 clknet_4_3_0_wb_clk_i
*1497 clknet_4_4_0_wb_clk_i
*1498 clknet_4_5_0_wb_clk_i
*1499 clknet_4_6_0_wb_clk_i
*1500 clknet_4_7_0_wb_clk_i
*1501 clknet_4_8_0_wb_clk_i
*1502 clknet_4_9_0_wb_clk_i
*1503 net1
*1504 net10
*1505 net100
*1506 net1000
*1507 net1001
*1508 net1002
*1509 net1003
*1510 net1004
*1511 net1005
*1512 net1006
*1513 net1007
*1514 net1008
*1515 net1009
*1516 net101
*1517 net1010
*1518 net1011
*1519 net1012
*1520 net1013
*1521 net1014
*1522 net1015
*1523 net1016
*1524 net1017
*1525 net1018
*1526 net1019
*1527 net102
*1528 net1020
*1529 net1021
*1530 net1022
*1531 net1023
*1532 net1024
*1533 net1025
*1534 net1026
*1535 net1027
*1536 net1028
*1537 net1029
*1538 net103
*1539 net1030
*1540 net1031
*1541 net1032
*1542 net1033
*1543 net1034
*1544 net1035
*1545 net1036
*1546 net1037
*1547 net1038
*1548 net1039
*1549 net104
*1550 net1040
*1551 net1041
*1552 net1042
*1553 net1043
*1554 net1044
*1555 net1045
*1556 net1046
*1557 net1047
*1558 net1048
*1559 net1049
*1560 net105
*1561 net1050
*1562 net1051
*1563 net1052
*1564 net1053
*1565 net1054
*1566 net1055
*1567 net1056
*1568 net1057
*1569 net1058
*1570 net1059
*1571 net106
*1572 net1060
*1573 net1061
*1574 net1062
*1575 net1063
*1576 net1064
*1577 net1065
*1578 net1066
*1579 net1067
*1580 net1068
*1581 net1069
*1582 net107
*1583 net1070
*1584 net1071
*1585 net1072
*1586 net1073
*1587 net1074
*1588 net1075
*1589 net1076
*1590 net1077
*1591 net1078
*1592 net1079
*1593 net108
*1594 net1080
*1595 net1081
*1596 net1082
*1597 net1083
*1598 net1084
*1599 net1085
*1600 net1086
*1601 net1087
*1602 net1088
*1603 net1089
*1604 net109
*1605 net1090
*1606 net1091
*1607 net1092
*1608 net1093
*1609 net1094
*1610 net1095
*1611 net1096
*1612 net1097
*1613 net1098
*1614 net1099
*1615 net11
*1616 net110
*1617 net1100
*1618 net1101
*1619 net1102
*1620 net1103
*1621 net1104
*1622 net1105
*1623 net1106
*1624 net1107
*1625 net1108
*1626 net1109
*1627 net111
*1628 net1110
*1629 net1111
*1630 net1112
*1631 net1113
*1632 net1114
*1633 net1115
*1634 net1116
*1635 net1117
*1636 net1118
*1637 net1119
*1638 net112
*1639 net1120
*1640 net1121
*1641 net1122
*1642 net1123
*1643 net1124
*1644 net1125
*1645 net1126
*1646 net1127
*1647 net1128
*1648 net1129
*1649 net113
*1650 net1130
*1651 net1131
*1652 net1132
*1653 net1133
*1654 net1134
*1655 net1135
*1656 net1136
*1657 net1137
*1658 net1138
*1659 net1139
*1660 net114
*1661 net1140
*1662 net1141
*1663 net1142
*1664 net1143
*1665 net1144
*1666 net1145
*1667 net1146
*1668 net1147
*1669 net1148
*1670 net1149
*1671 net115
*1672 net1150
*1673 net1151
*1674 net1152
*1675 net1153
*1676 net1154
*1677 net1155
*1678 net1156
*1679 net1157
*1680 net1158
*1681 net1159
*1682 net116
*1683 net1160
*1684 net1161
*1685 net1162
*1686 net1163
*1687 net1164
*1688 net1165
*1689 net1166
*1690 net1167
*1691 net1168
*1692 net1169
*1693 net117
*1694 net1170
*1695 net1171
*1696 net1172
*1697 net1173
*1698 net1174
*1699 net1175
*1700 net1176
*1701 net1177
*1702 net1178
*1703 net1179
*1704 net118
*1705 net1180
*1706 net1181
*1707 net1182
*1708 net1183
*1709 net1184
*1710 net1185
*1711 net1186
*1712 net1187
*1713 net1188
*1714 net1189
*1715 net119
*1716 net1190
*1717 net1191
*1718 net1192
*1719 net1193
*1720 net1194
*1721 net1195
*1722 net1196
*1723 net1197
*1724 net1198
*1725 net1199
*1726 net12
*1727 net120
*1728 net1200
*1729 net1201
*1730 net1202
*1731 net1203
*1732 net1204
*1733 net1205
*1734 net1206
*1735 net1207
*1736 net1208
*1737 net1209
*1738 net121
*1739 net1210
*1740 net1211
*1741 net1212
*1742 net1213
*1743 net1214
*1744 net1215
*1745 net1216
*1746 net1217
*1747 net1218
*1748 net1219
*1749 net122
*1750 net1220
*1751 net1221
*1752 net1222
*1753 net1223
*1754 net1224
*1755 net1225
*1756 net1226
*1757 net1227
*1758 net1228
*1759 net1229
*1760 net123
*1761 net1230
*1762 net1231
*1763 net1232
*1764 net1233
*1765 net1234
*1766 net1235
*1767 net1236
*1768 net1237
*1769 net1238
*1770 net1239
*1771 net124
*1772 net1240
*1773 net1241
*1774 net125
*1775 net126
*1776 net127
*1777 net128
*1778 net129
*1779 net13
*1780 net130
*1781 net131
*1782 net132
*1783 net133
*1784 net134
*1785 net135
*1786 net136
*1787 net137
*1788 net138
*1789 net139
*1790 net14
*1791 net140
*1792 net141
*1793 net142
*1794 net143
*1795 net144
*1796 net145
*1797 net146
*1798 net147
*1799 net148
*1800 net149
*1801 net15
*1802 net150
*1803 net151
*1804 net152
*1805 net153
*1806 net154
*1807 net155
*1808 net156
*1809 net157
*1810 net158
*1811 net159
*1812 net16
*1813 net160
*1814 net161
*1815 net162
*1816 net163
*1817 net164
*1818 net165
*1819 net166
*1820 net167
*1821 net168
*1822 net169
*1823 net17
*1824 net170
*1825 net171
*1826 net172
*1827 net173
*1828 net174
*1829 net175
*1830 net176
*1831 net177
*1832 net178
*1833 net179
*1834 net18
*1835 net180
*1836 net181
*1837 net182
*1838 net183
*1839 net184
*1840 net185
*1841 net186
*1842 net187
*1843 net188
*1844 net189
*1845 net19
*1846 net190
*1847 net191
*1848 net192
*1849 net193
*1850 net194
*1851 net195
*1852 net196
*1853 net197
*1854 net198
*1855 net199
*1856 net2
*1857 net20
*1858 net200
*1859 net201
*1860 net202
*1861 net203
*1862 net204
*1863 net205
*1864 net206
*1865 net207
*1866 net208
*1867 net209
*1868 net21
*1869 net210
*1870 net211
*1871 net212
*1872 net213
*1873 net214
*1874 net215
*1875 net216
*1876 net217
*1877 net218
*1878 net219
*1879 net22
*1880 net220
*1881 net221
*1882 net222
*1883 net223
*1884 net224
*1885 net225
*1886 net226
*1887 net227
*1888 net228
*1889 net229
*1890 net23
*1891 net230
*1892 net231
*1893 net232
*1894 net233
*1895 net234
*1896 net235
*1897 net236
*1898 net237
*1899 net238
*1900 net239
*1901 net24
*1902 net240
*1903 net241
*1904 net242
*1905 net243
*1906 net244
*1907 net245
*1908 net246
*1909 net247
*1910 net248
*1911 net249
*1912 net25
*1913 net250
*1914 net251
*1915 net252
*1916 net253
*1917 net254
*1918 net255
*1919 net256
*1920 net257
*1921 net258
*1922 net259
*1923 net26
*1924 net260
*1925 net261
*1926 net262
*1927 net263
*1928 net264
*1929 net265
*1930 net266
*1931 net267
*1932 net268
*1933 net269
*1934 net27
*1935 net270
*1936 net271
*1937 net272
*1938 net273
*1939 net274
*1940 net275
*1941 net276
*1942 net277
*1943 net278
*1944 net279
*1945 net28
*1946 net280
*1947 net281
*1948 net282
*1949 net283
*1950 net284
*1951 net285
*1952 net286
*1953 net287
*1954 net288
*1955 net289
*1956 net29
*1957 net290
*1958 net291
*1959 net292
*1960 net293
*1961 net294
*1962 net295
*1963 net296
*1964 net297
*1965 net298
*1966 net299
*1967 net3
*1968 net30
*1969 net300
*1970 net301
*1971 net302
*1972 net303
*1973 net304
*1974 net305
*1975 net306
*1976 net307
*1977 net308
*1978 net309
*1979 net31
*1980 net310
*1981 net311
*1982 net312
*1983 net313
*1984 net314
*1985 net315
*1986 net316
*1987 net317
*1988 net318
*1989 net319
*1990 net32
*1991 net320
*1992 net321
*1993 net322
*1994 net323
*1995 net324
*1996 net325
*1997 net326
*1998 net327
*1999 net328
*2000 net329
*2001 net33
*2002 net330
*2003 net331
*2004 net332
*2005 net333
*2006 net334
*2007 net335
*2008 net336
*2009 net337
*2010 net338
*2011 net339
*2012 net34
*2013 net340
*2014 net341
*2015 net342
*2016 net343
*2017 net344
*2018 net345
*2019 net346
*2020 net347
*2021 net348
*2022 net349
*2023 net35
*2024 net350
*2025 net351
*2026 net352
*2027 net353
*2028 net354
*2029 net355
*2030 net356
*2031 net357
*2032 net358
*2033 net359
*2034 net36
*2035 net360
*2036 net361
*2037 net362
*2038 net363
*2039 net364
*2040 net365
*2041 net366
*2042 net367
*2043 net368
*2044 net369
*2045 net37
*2046 net370
*2047 net371
*2048 net372
*2049 net373
*2050 net374
*2051 net375
*2052 net376
*2053 net377
*2054 net378
*2055 net379
*2056 net38
*2057 net380
*2058 net381
*2059 net382
*2060 net383
*2061 net384
*2062 net385
*2063 net386
*2064 net387
*2065 net388
*2066 net389